&setup_nml
filename = 'obs-70.nc'
filename_var = 'traj_var.nc'
doassim = 1
delt_obs = 630
file_timestep = 90
rms_obs = 0.49
obs_den = 8
obsvar = 'o'
file_timecount = 0
/

