&setup_nml
obsname = 'O'
filename = 'obs-70.nc'
filename_var = 'traj_var.nc'
doassim = 1
delt_obs = 630
file_timestep = 7
rms_obs = 0.49
disttype = 0
ncoord = 2
nrows = 1
use_global_obs = 1
obs_den = 8
obsvar = 'o'
file_timecount = 0
/

